<?xml version="1.0" encoding="UTF-8"?>
<!DOCTYPE network SYSTEM "http://www.matsim.org/files/dtd/network_v2.dtd">
<network>

<!-- ====================================================================== -->

	<nodes>
		<node id="1001100037" x="618957.471540692" y="5637188.633686192" >
		</node>
		<node id="1001100068" x="618773.2050372734" y="5637109.5019059675" >
		</node>
		<node id="1001100142" x="618908.8788721792" y="5637227.181753858" >
		</node>
		<node id="1026364243" x="618928.7559735231" y="5636962.78434688" >
		</node>
		<node id="1026364246" x="618963.2414001531" y="5636939.733057955" >
		</node>
		<node id="1026364261" x="618792.1615435672" y="5637053.464993554" >
		</node>
		<node id="1026364266" x="618811.9743252769" y="5637056.343316501" >
		</node>
		<node id="1026364308" x="618959.9916090957" y="5636911.345569049" >
		</node>
		<node id="1026364335" x="618933.7826421395" y="5636946.768198979" >
		</node>
		<node id="1026364347" x="618954.4986926141" y="5636930.810888407" >
		</node>
		<node id="1026364430" x="619006.2395105987" y="5637006.644478257" >
		</node>
		<node id="1026364449" x="618851.2860087266" y="5637053.971779324" >
		</node>
		<node id="1026364451" x="618969.8915523951" y="5637044.949674851" >
		</node>
		<node id="1026364509" x="618965.2645949982" y="5636937.454264812" >
		</node>
		<node id="1026364531" x="618912.1116286635" y="5636945.404390306" >
		</node>
		<node id="1026364585" x="618830.227049432" y="5636985.86134184" >
		</node>
		<node id="1026364593" x="619024.918564896" y="5637000.942524478" >
		</node>
		<node id="1026364632" x="618945.8115101535" y="5636934.527982727" >
		</node>
		<node id="1026364640" x="619012.8522300308" y="5637016.352323266" >
		</node>
		<node id="1026364650" x="618853.8316937535" y="5637007.004753948" >
		</node>
		<node id="1026364711" x="618833.1104424943" y="5636988.441537897" >
		</node>
		<node id="1026364719" x="618928.7050212007" y="5636959.167562416" >
		</node>
		<node id="1026364741" x="618843.4640511591" y="5636997.722974312" >
		</node>
		<node id="1026379890" x="618783.9889036757" y="5636782.841321216" >
		</node>
		<node id="1026379930" x="618796.3819161188" y="5637087.770781779" >
		</node>
		<node id="1026379950" x="618810.3871067918" y="5637075.575467097" >
		</node>
		<node id="1100580844" x="618999.4237654195" y="5637081.704385123" >
		</node>
		<node id="1100580851" x="619093.3151137723" y="5636883.19443996" >
		</node>
		<node id="1100580863" x="618976.3366132221" y="5637118.533297552" >
		</node>
		<node id="1100580917" x="618981.9339115208" y="5637186.401533982" >
		</node>
		<node id="1100582879" x="618973.404597483" y="5637084.579444901" >
		</node>
		<node id="1101589549" x="619107.7390132439" y="5637181.930826647" >
		</node>
		<node id="1101589622" x="619113.6014354663" y="5637002.685803425" >
		</node>
		<node id="1111082390" x="619196.7882016816" y="5636750.309644234" >
		</node>
		<node id="1125556955" x="618810.2661459122" y="5637104.564376644" >
		</node>
		<node id="1195682776" x="618935.2690944427" y="5636970.08680937" >
		</node>
		<node id="1195682962" x="618961.2095137422" y="5637022.934770031" >
		</node>
		<node id="126673884" x="618982.6446789607" y="5636994.0111882305" >
		</node>
		<node id="126679455" x="618765.8056188873" y="5637037.509948092" >
		</node>
		<node id="126679456" x="618877.179321899" y="5636916.625653306" >
		</node>
		<node id="1472593965" x="618973.3605427995" y="5637118.776639908" >
		</node>
		<node id="1472593966" x="618964.152351147" y="5637119.745015315" >
		</node>
		<node id="1472593967" x="618938.482593401" y="5637190.379391284" >
		</node>
		<node id="148459356" x="618910.6165182458" y="5636901.237387988" >
		</node>
		<node id="148459914" x="618918.2519572414" y="5636900.722403456" >
		</node>
		<node id="148459920" x="618955.8963462313" y="5636920.496658305" >
		</node>
		<node id="148459922" x="618959.9433849269" y="5636920.522573651" >
		</node>
		<node id="148459925" x="618982.392232788" y="5636919.278896012" >
		</node>
		<node id="160501587" x="618807.4603939332" y="5637290.031391013" >
		</node>
		<node id="16571388" x="618947.7406645265" y="5637372.284642941" >
		</node>
		<node id="16737648" x="619160.7992520237" y="5636923.523543341" >
		</node>
		<node id="16737651" x="619147.9455863476" y="5636869.18351922" >
		</node>
		<node id="16737661" x="618799.4269475823" y="5637109.445107356" >
		</node>
		<node id="16737675" x="619008.8567028978" y="5637182.468112369" >
		</node>
		<node id="16737679" x="618808.628755414" y="5637133.685481391" >
		</node>
		<node id="16737680" x="618847.5853809856" y="5637130.193320478" >
		</node>
		<node id="16737681" x="618863.5687783449" y="5637128.756756619" >
		</node>
		<node id="16933591" x="618797.7076559834" y="5637098.748068962" >
		</node>
		<node id="16933592" x="618829.5839131945" y="5637073.9897844605" >
		</node>
		<node id="16933593" x="618783.9040911571" y="5637070.419761277" >
		</node>
		<node id="16933618" x="618990.7214989518" y="5636910.291546578" >
		</node>
		<node id="16933619" x="618988.8551252475" y="5636893.427827366" >
		</node>
		<node id="16933620" x="618946.4317139669" y="5636886.838271507" >
		</node>
		<node id="179559760" x="618906.3811111355" y="5637192.69276289" >
		</node>
		<node id="179559762" x="618904.536215168" y="5637168.119952223" >
		</node>
		<node id="179559767" x="618908.4415119067" y="5637218.305132066" >
		</node>
		<node id="18232316" x="618943.0118608207" y="5636961.497586476" >
		</node>
		<node id="18232317" x="618955.9207314282" y="5636947.408544208" >
		</node>
		<node id="18233447" x="618812.7654231385" y="5637091.927942699" >
		</node>
		<node id="18233451" x="619046.7160153823" y="5637010.9093270935" >
		</node>
		<node id="18233453" x="618995.0808617304" y="5637018.693112839" >
		</node>
		<node id="1850354390" x="618804.7467411652" y="5637115.985871326" >
		</node>
		<node id="2032004908" x="618914.6265224399" y="5636925.025369969" >
		</node>
		<node id="2032004911" x="618923.123821869" y="5636933.908477004" >
		</node>
		<node id="249438905" x="618935.3837419993" y="5636949.396972659" >
		</node>
		<node id="249438906" x="618797.881318483" y="5637090.230312683" >
		</node>
		<node id="249438907" x="618815.157232637" y="5637075.373061858" >
		</node>
		<node id="249438955" x="618947.9425730591" y="5636937.068768932" >
		</node>
		<node id="2633771099" x="618878.9831192851" y="5636890.4008645695" >
		</node>
		<node id="2633771107" x="618820.4391223807" y="5636977.082370119" >
		</node>
		<node id="2634195223" x="618777.3675804057" y="5637115.860433106" >
		</node>
		<node id="2634195262" x="618910.8701519971" y="5637046.390774535" >
		</node>
		<node id="2634195277" x="619046.2090649601" y="5636952.547145096" >
		</node>
		<node id="2634195282" x="619002.9110401174" y="5636996.45562232" >
		</node>
		<node id="2634195285" x="619000.720206478" y="5636998.0630617775" >
		</node>
		<node id="2634195299" x="618801.0867093087" y="5637107.970066854" >
		</node>
		<node id="2639836073" x="619110.6953062249" y="5637071.1046423605" >
		</node>
		<node id="2639836074" x="619108.8726394132" y="5637123.583959152" >
		</node>
		<node id="2639836079" x="619160.7148450969" y="5636997.792090855" >
		</node>
		<node id="2639836091" x="618971.4908092697" y="5637061.79614922" >
		</node>
		<node id="2639836097" x="619123.6302071514" y="5637329.089577933" >
		</node>
		<node id="2658942205" x="618955.170372149" y="5636924.841028181" >
		</node>
		<node id="2658942211" x="618961.3716018687" y="5636995.259525714" >
		</node>
		<node id="2658942212" x="619031.0698488915" y="5636972.414364511" >
		</node>
		<node id="2658942226" x="618749.1701776569" y="5637144.140727033" >
		</node>
		<node id="296208713" x="619202.478320781" y="5637205.1968646785" >
		</node>
		<node id="3318306314" x="618995.3971635584" y="5637041.762452514" >
		</node>
		<node id="3703160511" x="618985.5014264766" y="5637156.646028191" >
		</node>
		<node id="3703160512" x="618988.5199429702" y="5637156.392540793" >
		</node>
		<node id="3703160519" x="619002.4109410228" y="5637116.315896476" >
		</node>
		<node id="3703160521" x="618990.4079175787" y="5637005.73672424" >
		</node>
		<node id="3703160522" x="618993.6720982669" y="5637012.586603603" >
		</node>
		<node id="3703160524" x="618964.1326377727" y="5637029.309571057" >
		</node>
		<node id="3771525357" x="619123.0658620013" y="5636909.196981052" >
		</node>
		<node id="4126291916" x="618929.1358787419" y="5636951.723689817" >
		</node>
		<node id="4126291918" x="618919.0787474276" y="5636951.326599707" >
		</node>
		<node id="4567020997" x="619146.4631784064" y="5637009.02409717" >
		</node>
		<node id="4567021001" x="618999.7486723283" y="5637018.043531731" >
		</node>
		<node id="4567021003" x="618995.6930717083" y="5637037.141236319" >
		</node>
		<node id="4567021004" x="618991.7306441092" y="5637034.347106342" >
		</node>
		<node id="4567021008" x="618981.7613774963" y="5637019.055547299" >
		</node>
		<node id="4567021009" x="618976.6769299656" y="5637014.845109976" >
		</node>
		<node id="4567021020" x="618896.6415662704" y="5636914.234146044" >
		</node>
		<node id="4567021023" x="618878.0015189142" y="5636912.995475079" >
		</node>
		<node id="4567021024" x="618880.78177498" y="5636915.161712633" >
		</node>
		<node id="4567021037" x="618982.1332122058" y="5637118.076430476" >
		</node>
		<node id="4567021038" x="618985.1520053978" y="5637117.81182165" >
		</node>
		<node id="4567021041" x="618985.1327615324" y="5637223.142760421" >
		</node>
		<node id="4567031225" x="618901.5168274743" y="5637193.015300244" >
		</node>
		<node id="4567031226" x="618913.3006306154" y="5637192.6842744965" >
		</node>
		<node id="4567031231" x="618904.1688096924" y="5637161.414304523" >
		</node>
		<node id="4567040182" x="618873.7608479734" y="5637168.461386734" >
		</node>
		<node id="4567040186" x="618901.4562378026" y="5637160.295345492" >
		</node>
		<node id="4904683978" x="618987.9534022457" y="5637184.815032467" >
		</node>
		<node id="4904683979" x="618990.9731760905" y="5637184.505950957" >
		</node>
		<node id="5022472675" x="619004.5137083076" y="5637017.451806812" >
		</node>
		<node id="5221796086" x="618957.1417344714" y="5637085.608778745" >
		</node>
		<node id="5221796087" x="618968.9834398783" y="5637084.912071235" >
		</node>
		<node id="5351231239" x="619007.7753236312" y="5636894.117061984" >
		</node>
		<node id="5351231262" x="618864.5072739964" y="5637022.823961432" >
		</node>
		<node id="5351231265" x="618851.849583226" y="5637011.798771725" >
		</node>
		<node id="5351231266" x="618818.7484644889" y="5637067.623216893" >
		</node>
		<node id="5766507374" x="618817.7665295498" y="5637083.164594494" >
		</node>
		<node id="5766507375" x="618804.0642858676" y="5637093.809321383" >
		</node>
		<node id="5766507377" x="618774.3873547378" y="5637127.061888742" >
		</node>
		<node id="5766507581" x="619136.6784604528" y="5636775.419574225" >
		</node>
		<node id="5827800018" x="618992.192369068" y="5636890.022141134" >
		</node>
		<node id="5827800019" x="618986.0081223006" y="5636896.021494525" >
		</node>
		<node id="5827800020" x="618960.1269891328" y="5636917.422908175" >
		</node>
		<node id="5827800021" x="618959.6367032095" y="5636923.463671258" >
		</node>
		<node id="6460129764" x="619124.9512322388" y="5637001.655540044" >
		</node>
		<node id="6535339463" x="619175.2500628497" y="5637107.684504834" >
		</node>
		<node id="6699214241" x="619140.6244114059" y="5636923.216600133" >
		</node>
		<node id="6699214615" x="619120.6367679185" y="5636907.683911428" >
		</node>
		<node id="692826774" x="618893.0024042448" y="5637026.190497438" >
		</node>
		<node id="692826792" x="618858.5006420272" y="5637059.532449926" >
		</node>
		<node id="7606769484" x="618795.606906979" y="5637155.2148835575" >
		</node>
		<node id="7606779185" x="618804.40033193" y="5637155.449349818" >
		</node>
		<node id="7606779186" x="618808.2200184653" y="5637155.55895443" >
		</node>
		<node id="7643211265" x="619114.0014972029" y="5637042.956332505" >
		</node>
		<node id="7643211276" x="619038.913853156" y="5637063.251621503" >
		</node>
		<node id="7643259585" x="619033.1640811315" y="5637071.18549343" >
		</node>
		<node id="7643259586" x="619047.095823257" y="5637069.902726359" >
		</node>
		<node id="7643259587" x="619048.7538021997" y="5637070.352344361" >
		</node>
		<node id="7643259588" x="619050.7804840807" y="5637076.829032092" >
		</node>
		<node id="7643259595" x="619086.1239821527" y="5637073.456088563" >
		</node>
		<node id="7643259603" x="619058.4841037553" y="5637076.093325134" >
		</node>
		<node id="7643259604" x="619062.5921540158" y="5637061.780609008" >
		</node>
		<node id="7643259617" x="619113.2841143538" y="5637049.069756828" >
		</node>
		<node id="7643259642" x="619033.8213792683" y="5637103.941398423" >
		</node>
		<node id="7643259664" x="619026.4989523247" y="5637079.13177393" >
		</node>
		<node id="7643259665" x="619001.3761619871" y="5637104.332831348" >
		</node>
		<node id="7643259670" x="619077.4040223041" y="5637084.13645282" >
		</node>
		<node id="7643259671" x="619078.9016076596" y="5637099.567770394" >
		</node>
		<node id="7643259672" x="619082.5566071285" y="5637137.26515562" >
		</node>
		<node id="7643259673" x="619073.4127504913" y="5637100.10945927" >
		</node>
		<node id="7643259674" x="619071.0270517026" y="5637074.901169789" >
		</node>
		<node id="7643259679" x="619109.6007899776" y="5637089.369040758" >
		</node>
		<node id="7643259690" x="619108.9530467888" y="5637119.769928936" >
		</node>
		<node id="7643259692" x="619098.9442654555" y="5637120.041086329" >
		</node>
		<node id="7643259699" x="619099.9036295799" y="5637119.9518305035" >
		</node>
		<node id="7643259700" x="619098.3434602992" y="5637103.261944534" >
		</node>
		<node id="7643259701" x="619109.3118962022" y="5637102.89041222" >
		</node>
		<node id="7643259702" x="619097.3770577251" y="5637103.351039402" >
		</node>
		<node id="7643259703" x="619096.812337486" y="5637089.910224212" >
		</node>
		<node id="7643259722" x="619040.612644137" y="5637167.286960623" >
		</node>
		<node id="7643259726" x="619037.7794860717" y="5637181.26177966" >
		</node>
		<node id="7643259727" x="619081.8689454086" y="5637146.383013207" >
		</node>
		<node id="7643259728" x="619044.0181305719" y="5637170.112870703" >
		</node>
		<node id="7643259729" x="619044.260813307" y="5637182.867672941" >
		</node>
		<node id="7643259733" x="619044.1228961701" y="5637175.67776751" >
		</node>
		<node id="7643259734" x="619043.9123451865" y="5637164.59245056" >
		</node>
		<node id="7643259739" x="619075.1919035387" y="5637155.463707837" >
		</node>
		<node id="7643259740" x="619082.451466023" y="5637152.29261333" >
		</node>
		<node id="7643259741" x="619081.5383771044" y="5637142.993437387" >
		</node>
		<node id="7643259742" x="619065.457762525" y="5637143.448104446" >
		</node>
		<node id="7643259743" x="619108.7289739194" y="5637142.437534477" >
		</node>
		<node id="7643259746" x="619056.9117744765" y="5637101.700396963" >
		</node>
		<node id="7646521988" x="618983.8970329314" y="5637086.24374331" >
		</node>
		<node id="7646521989" x="618989.514474521" y="5637156.304070425" >
		</node>
		<node id="7646521994" x="618977.7817660935" y="5637086.782311459" >
		</node>
		<node id="7646521999" x="618976.0346526525" y="5637063.791455734" >
		</node>
		<node id="7646522000" x="618975.5671845512" y="5637108.792438869" >
		</node>
		<node id="7646522003" x="618977.1112907133" y="5637128.352151732" >
		</node>
		<node id="7646522005" x="618984.824553799" y="5637047.283038255" >
		</node>
		<node id="7646522025" x="618976.4483261139" y="5637068.473423048" >
		</node>
		<node id="7646522026" x="618976.5867796665" y="5637070.111966616" >
		</node>
		<node id="7646522028" x="618979.1707077883" y="5637102.667225427" >
		</node>
		<node id="7646522030" x="618976.7322685673" y="5637071.750671316" >
		</node>
		<node id="7646522032" x="618979.4656603051" y="5637106.078226156" >
		</node>
		<node id="7646522048" x="618970.2314363031" y="5637048.550828029" >
		</node>
		<node id="7646522055" x="618981.3045501933" y="5637178.8443780495" >
		</node>
		<node id="7646522082" x="618982.8954527474" y="5637086.332053812" >
		</node>
		<node id="7646522083" x="618979.3969578752" y="5637086.64130321" >
		</node>
		<node id="7646522117" x="618981.9258585154" y="5637133.891411755" >
		</node>
		<node id="7646522118" x="618981.6198954877" y="5637130.346658593" >
		</node>
		<node id="7646522119" x="618984.0483238458" y="5637156.779621213" >
		</node>
		<node id="7646522120" x="618985.6418756237" y="5637173.870725264" >
		</node>
		<node id="7646522121" x="618985.8309055762" y="5637176.066677377" >
		</node>
		<node id="7988084259" x="619099.4968592004" y="5636942.409852327" >
		</node>
		<node id="7988084262" x="619125.7326066708" y="5636919.993745859" >
		</node>
		<node id="7988084263" x="619118.9842360978" y="5636935.547505427" >
		</node>
		<node id="7988084265" x="619113.3524883661" y="5636944.463002462" >
		</node>
		<node id="9680087982" x="618816.3200026653" y="5637100.553217084" >
		</node>
		<node id="9680109672" x="618927.3228417544" y="5636958.045674256" >
		</node>
		<node id="9680109674" x="618925.6527396676" y="5636963.658932549" >
		</node>
		<node id="9680109677" x="618927.7040449822" y="5636965.686135903" >
		</node>
		<node id="9680109678" x="618933.0904698514" y="5636972.083930647" >
		</node>
		<node id="9680109686" x="618958.3254966423" y="5637024.381728961" >
		</node>
		<node id="9680109687" x="618961.7683943909" y="5637031.113304808" >
		</node>
		<node id="9680109693" x="618957.5432619294" y="5636927.887979428" >
		</node>
		<node id="9680109700" x="619009.979624444" y="5637006.852529148" >
		</node>
		<node id="9680109702" x="619014.1724615698" y="5637016.182317959" >
		</node>
		<node id="9680109703" x="619026.0500021086" y="5637003.482693575" >
		</node>
		<node id="9680109704" x="619011.2890904355" y="5637008.996273559" >
		</node>
		<node id="9695872263" x="619048.4610815161" y="5636872.699088729" >
		</node>
	</nodes>

<!-- ====================================================================== -->

	<links capperiod="01:00:00" effectivecellsize="7.5" effectivelanewidth="3.75">
		<link id="1003440710000f" from="1026364650" to="5351231265" length="5.187616850519471" freespeed="2.7777777777777777" capacity="50.0" permlanes="1.0" oneway="1" modes="bike" >
			<attributes>
				<attribute name="allowed_speed" class="java.lang.Double">2.7777777777777777</attribute>
				<attribute name="origid" class="java.lang.Long">100344071</attribute>
				<attribute name="surface" class="java.lang.String">paving_stones</attribute>
				<attribute name="type" class="java.lang.String">service</attribute>
			</attributes>
		</link>
		<link id="1003440710000r" from="5351231265" to="1026364650" length="5.187616850519471" freespeed="2.7777777777777777" capacity="50.0" permlanes="1.0" oneway="1" modes="bike" >
			<attributes>
				<attribute name="allowed_speed" class="java.lang.Double">2.7777777777777777</attribute>
				<attribute name="origid" class="java.lang.Long">100344071</attribute>
				<attribute name="surface" class="java.lang.String">paving_stones</attribute>
				<attribute name="type" class="java.lang.String">service</attribute>
			</attributes>
		</link>
		<link id="1003440710002f" from="5351231265" to="1026364266" length="59.9524302027161" freespeed="2.7777777777777777" capacity="25.0" permlanes="1.0" oneway="1" modes="bike" >
			<attributes>
				<attribute name="allowed_speed" class="java.lang.Double">2.7777777777777777</attribute>
				<attribute name="origid" class="java.lang.Long">100344071</attribute>
				<attribute name="surface" class="java.lang.String">paving_stones</attribute>
				<attribute name="type" class="java.lang.String">service</attribute>
			</attributes>
		</link>
		<link id="1003440710002r" from="1026364266" to="5351231265" length="59.9524302027161" freespeed="2.7777777777777777" capacity="25.0" permlanes="1.0" oneway="1" modes="bike" >
			<attributes>
				<attribute name="allowed_speed" class="java.lang.Double">2.7777777777777777</attribute>
				<attribute name="origid" class="java.lang.Long">100344071</attribute>
				<attribute name="surface" class="java.lang.String">paving_stones</attribute>
				<attribute name="type" class="java.lang.String">service</attribute>
			</attributes>
		</link>
		<link id="1003440710005f" from="1026364266" to="1026364261" length="22.21939482181543" freespeed="2.7777777777777777" capacity="50.0" permlanes="1.0" oneway="1" modes="bike" >
			<attributes>
				<attribute name="allowed_speed" class="java.lang.Double">2.7777777777777777</attribute>
				<attribute name="origid" class="java.lang.Long">100344071</attribute>
				<attribute name="surface" class="java.lang.String">paving_stones</attribute>
				<attribute name="type" class="java.lang.String">service</attribute>
			</attributes>
		</link>
		<link id="1003440710005r" from="1026364261" to="1026364266" length="22.21939482181543" freespeed="2.7777777777777777" capacity="50.0" permlanes="1.0" oneway="1" modes="bike" >
			<attributes>
				<attribute name="allowed_speed" class="java.lang.Double">2.7777777777777777</attribute>
				<attribute name="origid" class="java.lang.Long">100344071</attribute>
				<attribute name="surface" class="java.lang.String">paving_stones</attribute>
				<attribute name="type" class="java.lang.String">service</attribute>
			</attributes>
		</link>
		<link id="1003440710009f" from="1026364261" to="1026364585" length="89.00805323618809" freespeed="2.7777777777777777" capacity="25.0" permlanes="1.0" oneway="1" modes="bike" >
			<attributes>
				<attribute name="allowed_speed" class="java.lang.Double">2.7777777777777777</attribute>
				<attribute name="origid" class="java.lang.Long">100344071</attribute>
				<attribute name="surface" class="java.lang.String">paving_stones</attribute>
				<attribute name="type" class="java.lang.String">service</attribute>
			</attributes>
		</link>
		<link id="1003440710009r" from="1026364585" to="1026364261" length="89.00805323618809" freespeed="2.7777777777777777" capacity="25.0" permlanes="1.0" oneway="1" modes="bike" >
			<attributes>
				<attribute name="allowed_speed" class="java.lang.Double">2.7777777777777777</attribute>
				<attribute name="origid" class="java.lang.Long">100344071</attribute>
				<attribute name="surface" class="java.lang.String">paving_stones</attribute>
				<attribute name="type" class="java.lang.String">service</attribute>
			</attributes>
		</link>
		<link id="1035592740000f" from="3703160524" to="1195682962" length="7.013040867917388" freespeed="8.333333333333334" capacity="750.0" permlanes="1.0" oneway="1" modes="bike" >
			<attributes>
				<attribute name="allowed_speed" class="java.lang.Double">8.333333333333334</attribute>
				<attribute name="origid" class="java.lang.Long">103559274</attribute>
				<attribute name="surface" class="java.lang.String">asphalt</attribute>
				<attribute name="type" class="java.lang.String">cycleway</attribute>
			</attributes>
		</link>
		<link id="1035592740000r" from="1195682962" to="3703160524" length="7.013040867917388" freespeed="8.333333333333334" capacity="750.0" permlanes="1.0" oneway="1" modes="bike" >
			<attributes>
				<attribute name="allowed_speed" class="java.lang.Double">8.333333333333334</attribute>
				<attribute name="origid" class="java.lang.Long">103559274</attribute>
				<attribute name="surface" class="java.lang.String">asphalt</attribute>
				<attribute name="type" class="java.lang.String">cycleway</attribute>
			</attributes>
		</link>
		<link id="1035592740005f" from="1195682962" to="1195682776" length="59.447930088205624" freespeed="8.333333333333334" capacity="375.0" permlanes="1.0" oneway="1" modes="bike" >
			<attributes>
				<attribute name="allowed_speed" class="java.lang.Double">8.333333333333334</attribute>
				<attribute name="origid" class="java.lang.Long">103559274</attribute>
				<attribute name="surface" class="java.lang.String">asphalt</attribute>
				<attribute name="type" class="java.lang.String">cycleway</attribute>
			</attributes>
		</link>
		<link id="1035592740005r" from="1195682776" to="1195682962" length="59.447930088205624" freespeed="8.333333333333334" capacity="375.0" permlanes="1.0" oneway="1" modes="bike" >
			<attributes>
				<attribute name="allowed_speed" class="java.lang.Double">8.333333333333334</attribute>
				<attribute name="origid" class="java.lang.Long">103559274</attribute>
				<attribute name="surface" class="java.lang.String">asphalt</attribute>
				<attribute name="type" class="java.lang.String">cycleway</attribute>
			</attributes>
		</link>
		<link id="1035592740006f" from="1195682776" to="1026364243" length="9.785024400653333" freespeed="8.333333333333334" capacity="750.0" permlanes="1.0" oneway="1" modes="bike" >
			<attributes>
				<attribute name="allowed_speed" class="java.lang.Double">8.333333333333334</attribute>
				<attribute name="origid" class="java.lang.Long">103559274</attribute>
				<attribute name="surface" class="java.lang.String">asphalt</attribute>
				<attribute name="type" class="java.lang.String">cycleway</attribute>
			</attributes>
		</link>
		<link id="1035592740006r" from="1026364243" to="1195682776" length="9.785024400653333" freespeed="8.333333333333334" capacity="750.0" permlanes="1.0" oneway="1" modes="bike" >
			<attributes>
				<attribute name="allowed_speed" class="java.lang.Double">8.333333333333334</attribute>
				<attribute name="origid" class="java.lang.Long">103559274</attribute>
				<attribute name="surface" class="java.lang.String">asphalt</attribute>
				<attribute name="type" class="java.lang.String">cycleway</attribute>
			</attributes>
		</link>
		<link id="10473651210003f" from="1026364449" to="9680109678" length="115.76561467221586" freespeed="12.5" capacity="2400.0" permlanes="3.0" oneway="1" modes="bike,car" >
			<attributes>
				<attribute name="allowed_speed" class="java.lang.Double">13.88888888888889</attribute>
				<attribute name="bike" class="java.lang.String">use_sidepath</attribute>
				<attribute name="origid" class="java.lang.Long">1047365121</attribute>
				<attribute name="surface" class="java.lang.String">asphalt</attribute>
				<attribute name="type" class="java.lang.String">secondary</attribute>
			</attributes>
		</link>
		<link id="10473651210004f" from="9680109678" to="1195682776" length="2.9554861708404823" freespeed="12.5" capacity="4800.0" permlanes="3.0" oneway="1" modes="bike,car" >
			<attributes>
				<attribute name="allowed_speed" class="java.lang.Double">13.88888888888889</attribute>
				<attribute name="bike" class="java.lang.String">use_sidepath</attribute>
				<attribute name="origid" class="java.lang.Long">1047365121</attribute>
				<attribute name="surface" class="java.lang.String">asphalt</attribute>
				<attribute name="type" class="java.lang.String">secondary</attribute>
			</attributes>
		</link>
		<link id="10473651210005f" from="1195682776" to="18232316" length="11.563960442153045" freespeed="12.5" capacity="4800.0" permlanes="3.0" oneway="1" modes="bike,car" >
			<attributes>
				<attribute name="allowed_speed" class="java.lang.Double">13.88888888888889</attribute>
				<attribute name="bike" class="java.lang.String">use_sidepath</attribute>
				<attribute name="origid" class="java.lang.Long">1047365121</attribute>
				<attribute name="surface" class="java.lang.String">asphalt</attribute>
				<attribute name="type" class="java.lang.String">secondary</attribute>
			</attributes>
		</link>
		<link id="10533370330000f" from="148459920" to="1026364308" length="10.025647734388748" freespeed="2.7777777777777777" capacity="300.0" permlanes="1.0" oneway="1" modes="bike" >
			<attributes>
				<attribute name="allowed_speed" class="java.lang.Double">2.7777777777777777</attribute>
				<attribute name="origid" class="java.lang.Long">1053337033</attribute>
				<attribute name="type" class="java.lang.String">footway</attribute>
			</attributes>
		</link>
		<link id="10533370330000r" from="1026364308" to="148459920" length="10.025647734388748" freespeed="2.7777777777777777" capacity="300.0" permlanes="1.0" oneway="1" modes="bike" >
			<attributes>
				<attribute name="allowed_speed" class="java.lang.Double">2.7777777777777777</attribute>
				<attribute name="origid" class="java.lang.Long">1053337033</attribute>
				<attribute name="type" class="java.lang.String">footway</attribute>
			</attributes>
		</link>
		<link id="10533370340000f" from="9680109674" to="9680109677" length="2.8839914931505266" freespeed="2.7777777777777777" capacity="300.0" permlanes="1.0" oneway="1" modes="bike" >
			<attributes>
				<attribute name="allowed_speed" class="java.lang.Double">2.7777777777777777</attribute>
				<attribute name="origid" class="java.lang.Long">1053337034</attribute>
				<attribute name="surface" class="java.lang.String">paving_stones</attribute>
				<attribute name="type" class="java.lang.String">footway</attribute>
			</attributes>
		</link>
		<link id="10533370340000r" from="9680109677" to="9680109674" length="2.8839914931505266" freespeed="2.7777777777777777" capacity="300.0" permlanes="1.0" oneway="1" modes="bike" >
			<attributes>
				<attribute name="allowed_speed" class="java.lang.Double">2.7777777777777777</attribute>
				<attribute name="origid" class="java.lang.Long">1053337034</attribute>
				<attribute name="surface" class="java.lang.String">paving_stones</attribute>
				<attribute name="type" class="java.lang.String">footway</attribute>
			</attributes>
		</link>
		<link id="10533370340001f" from="9680109677" to="9680109678" length="8.363333692834448" freespeed="2.7777777777777777" capacity="300.0" permlanes="1.0" oneway="1" modes="bike" >
			<attributes>