<?xml version="1.0" encoding="UTF-8"?>
<!DOCTYPE network SYSTEM "http://www.matsim.org/files/dtd/network_v2.dtd">
<network>

	<attributes>
		<attribute name="coordinateReferenceSystem" class="java.lang.String">Atlantis</attribute>
	</attributes>
<!-- ====================================================================== -->

	<nodes>
		<node id="1001100037" x="618957.471540692" y="5637188.633686192" >
		</node>
		<node id="1001100142" x="618908.8788721792" y="5637227.181753858" >
		</node>
		<node id="1026364449" x="618851.2860087266" y="5637053.971779324" >
		</node>
		<node id="1026364451" x="618969.8915523951" y="5637044.949674851" >
		</node>
		<node id="1026364593" x="619024.918564896" y="5637000.942524478" >
		</node>
		<node id="1026379890" x="618783.9889036757" y="5636782.841321216" >
		</node>
		<node id="1100580844" x="618999.4237654195" y="5637081.704385123" >
		</node>
		<node id="1100580851" x="619093.3151137723" y="5636883.19443996" >
		</node>
		<node id="1100580863" x="618976.3366132221" y="5637118.533297552" >
		</node>
		<node id="1100580917" x="618981.9339115208" y="5637186.401533982" >
		</node>
		<node id="1101589549" x="619107.7390132439" y="5637181.930826647" >
		</node>
		<node id="1101589622" x="619113.6014354663" y="5637002.685803425" >
		</node>
		<node id="1125556955" x="618810.2661459122" y="5637104.564376644" >
		</node>
		<node id="126673884" x="618982.6446789607" y="5636994.0111882305" >
		</node>
		<node id="126679455" x="618765.8056188873" y="5637037.509948092" >
		</node>
		<node id="126679456" x="618877.179321899" y="5636916.625653306" >
		</node>
		<node id="1472593965" x="618973.3605427995" y="5637118.776639908" >
		</node>
		<node id="1472593966" x="618964.152351147" y="5637119.745015315" >
		</node>
		<node id="148459356" x="618910.6165182458" y="5636901.237387988" >
		</node>
		<node id="148459914" x="618918.2519572414" y="5636900.722403456" >
		</node>
		<node id="148459925" x="618982.392232788" y="5636919.278896012" >
		</node>
		<node id="160501587" x="618807.4603939332" y="5637290.031391013" >
		</node>
		<node id="16571388" x="618947.7406645265" y="5637372.284642941" >
		</node>
		<node id="16737648" x="619160.7992520237" y="5636923.523543341" >
		</node>
		<node id="16737651" x="619147.9455863476" y="5636869.18351922" >
		</node>
		<node id="16737661" x="618799.4269475823" y="5637109.445107356" >
		</node>
		<node id="16737675" x="619008.8567028978" y="5637182.468112369" >
		</node>
		<node id="16737679" x="618808.628755414" y="5637133.685481391" >
		</node>
		<node id="16737680" x="618847.5853809856" y="5637130.193320478" >
		</node>
		<node id="16737681" x="618863.5687783449" y="5637128.756756619" >
		</node>
		<node id="16933591" x="618797.7076559834" y="5637098.748068962" >
		</node>
		<node id="16933592" x="618829.5839131945" y="5637073.9897844605" >
		</node>
		<node id="16933593" x="618783.9040911571" y="5637070.419761277" >
		</node>
		<node id="16933618" x="618990.7214989518" y="5636910.291546578" >
		</node>
		<node id="16933619" x="618988.8551252475" y="5636893.427827366" >
		</node>
		<node id="18232316" x="618943.0118608207" y="5636961.497586476" >
		</node>
		<node id="18232317" x="618955.9207314282" y="5636947.408544208" >
		</node>
		<node id="18233447" x="618812.7654231385" y="5637091.927942699" >
		</node>
		<node id="18233451" x="619046.7160153823" y="5637010.9093270935" >
		</node>
		<node id="18233453" x="618995.0808617304" y="5637018.693112839" >
		</node>
		<node id="2032004908" x="618914.6265224399" y="5636925.025369969" >
		</node>
		<node id="2032004911" x="618923.123821869" y="5636933.908477004" >
		</node>
		<node id="249438907" x="618815.157232637" y="5637075.373061858" >
		</node>
		<node id="2633771099" x="618878.9831192851" y="5636890.4008645695" >
		</node>
		<node id="2634195223" x="618777.3675804057" y="5637115.860433106" >
		</node>
		<node id="2634195262" x="618910.8701519971" y="5637046.390774535" >
		</node>
		<node id="2634195277" x="619046.2090649601" y="5636952.547145096" >
		</node>
		<node id="2634195299" x="618801.0867093087" y="5637107.970066854" >
		</node>
		<node id="2639836073" x="619110.6953062249" y="5637071.1046423605" >
		</node>
		<node id="2639836079" x="619160.7148450969" y="5636997.792090855" >
		</node>
		<node id="2639836097" x="619123.6302071514" y="5637329.089577933" >
		</node>
		<node id="2658942211" x="618961.3716018687" y="5636995.259525714" >
		</node>
		<node id="2658942212" x="619031.0698488915" y="5636972.414364511" >
		</node>
		<node id="296208713" x="619202.478320781" y="5637205.1968646785" >
		</node>
		<node id="3318306314" x="618995.3971635584" y="5637041.762452514" >
		</node>
		<node id="3703160521" x="618990.4079175787" y="5637005.73672424" >
		</node>
		<node id="3703160522" x="618993.6720982669" y="5637012.586603603" >
		</node>
		<node id="3771525357" x="619123.0658620013" y="5636909.196981052" >
		</node>
		<node id="4567021001" x="618999.7486723283" y="5637018.043531731" >
		</node>
		<node id="4567021004" x="618991.7306441092" y="5637034.347106342" >
		</node>
		<node id="4567021009" x="618976.6769299656" y="5637014.845109976" >
		</node>
		<node id="4567021020" x="618896.6415662704" y="5636914.234146044" >
		</node>
		<node id="4567021023" x="618878.0015189142" y="5636912.995475079" >
		</node>
		<node id="4567021024" x="618880.78177498" y="5636915.161712633" >
		</node>
		<node id="4567021041" x="618985.1327615324" y="5637223.142760421" >
		</node>
		<node id="4904683978" x="618987.9534022457" y="5637184.815032467" >
		</node>
		<node id="4904683979" x="618990.9731760905" y="5637184.505950957" >
		</node>
		<node id="5351231239" x="619007.7753236312" y="5636894.117061984" >
		</node>
		<node id="5766507374" x="618817.7665295498" y="5637083.164594494" >
		</node>
		<node id="5766507375" x="618804.0642858676" y="5637093.809321383" >
		</node>
		<node id="5766507377" x="618774.3873547378" y="5637127.061888742" >
		</node>
		<node id="5766507581" x="619136.6784604528" y="5636775.419574225" >
		</node>
		<node id="6699214241" x="619140.6244114059" y="5636923.216600133" >
		</node>
		<node id="6699214615" x="619120.6367679185" y="5636907.683911428" >
		</node>
		<node id="692826774" x="618893.0024042448" y="5637026.190497438" >
		</node>
		<node id="692826792" x="618858.5006420272" y="5637059.532449926" >
		</node>
		<node id="9680087982" x="618816.3200026653" y="5637100.553217084" >
		</node>
		<node id="9695872263" x="619048.4610815161" y="5636872.699088729" >
		</node>
	</nodes>

<!-- ====================================================================== -->

	<links capperiod="01:00:00" effectivecellsize="7.5" effectivelanewidth="3.75">
		<link id="10473651210005f" from="1026364449" to="18232316" length="130.2850612852094" freespeed="12.5" capacity="2400.0" permlanes="3.0" oneway="1" modes="car" >
			<attributes>
				<attribute name="allowed_speed" class="java.lang.Double">13.88888888888889</attribute>
				<attribute name="origid" class="java.lang.Long">1047365121</attribute>
				<attribute name="type" class="java.lang.String">secondary</attribute>
			</attributes>
		</link>
		<link id="10551645860000f" from="692826774" to="692826792" length="47.97976023096527" freespeed="12.5" capacity="3000.0" permlanes="1.0" oneway="1" modes="car" >
			<attributes>
				<attribute name="allowed_speed" class="java.lang.Double">13.88888888888889</attribute>
				<attribute name="origid" class="java.lang.Long">1055164586</attribute>
				<attribute name="type" class="java.lang.String">primary</attribute>
			</attributes>
		</link>
		<link id="10551645860000r" from="692826792" to="692826774" length="47.97976023096527" freespeed="12.5" capacity="3000.0" permlanes="1.0" oneway="1" modes="car" >
			<attributes>
				<attribute name="allowed_speed" class="java.lang.Double">13.88888888888889</attribute>
				<attribute name="origid" class="java.lang.Long">1055164586</attribute>
				<attribute name="type" class="java.lang.String">primary</attribute>
			</attributes>
		</link>
		<link id="12299046610000f" from="9680087982" to="1125556955" length="7.262133474390595" freespeed="12.5" capacity="1600.0" permlanes="1.0" oneway="1" modes="car" >
			<attributes>
				<attribute name="allowed_speed" class="java.lang.Double">13.88888888888889</attribute>
				<attribute name="origid" class="java.lang.Long">1229904661</attribute>
				<attribute name="type" class="java.lang.String">secondary</attribute>
			</attributes>
		</link>
		<link id="132461580000f" from="18232316" to="18232317" length="19.108638161415797" freespeed="12.5" capacity="3200.0" permlanes="2.0" oneway="1" modes="car" >
			<attributes>
				<attribute name="allowed_speed" class="java.lang.Double">13.88888888888889</attribute>
				<attribute name="origid" class="java.lang.Long">13246158</attribute>
				<attribute name="type" class="java.lang.String">secondary</attribute>
			</attributes>
		</link>
		<link id="1338010300000f" from="1472593966" to="1472593965" length="9.258971024748272" freespeed="5.0" capacity="300.0" permlanes="0.5" oneway="1" modes="car" >
			<attributes>
				<attribute name="allowed_speed" class="java.lang.Double">5.555555555555555</attribute>
				<attribute name="origid" class="java.lang.Long">133801030</attribute>
				<attribute name="type" class="java.lang.String">living_street</attribute>
			</attributes>
		</link>
		<link id="1338010300000r" from="1472593965" to="1472593966" length="9.258971024748272" freespeed="5.0" capacity="300.0" permlanes="0.5" oneway="1" modes="car" >
			<attributes>
				<attribute name="allowed_speed" class="java.lang.Double">5.555555555555555</attribute>
				<attribute name="origid" class="java.lang.Long">133801030</attribute>
				<attribute name="type" class="java.lang.String">living_street</attribute>
			</attributes>
		</link>
		<link id="1338010310000f" from="1472593965" to="1100580863" length="2.986002455270982" freespeed="7.500000000000001" capacity="300.0" permlanes="0.5" oneway="1" modes="car" >
			<attributes>
				<attribute name="allowed_speed" class="java.lang.Double">8.333333333333334</attribute>
				<attribute name="origid" class="java.lang.Long">133801031</attribute>
				<attribute name="type" class="java.lang.String">living_street</attribute>
			</attributes>
		</link>
		<link id="1338010310000r" from="1100580863" to="1472593965" length="2.986002455270982" freespeed="7.500000000000001" capacity="300.0" permlanes="0.5" oneway="1" modes="car" >
			<attributes>
				<attribute name="allowed_speed" class="java.lang.Double">8.333333333333334</attribute>
				<attribute name="origid" class="java.lang.Long">133801031</attribute>
				<attribute name="type" class="java.lang.String">living_street</attribute>
			</attributes>
		</link>
		<link id="137182260000f" from="126673884" to="3703160521" length="14.06257688142002" freespeed="12.5" capacity="4800.0" permlanes="3.0" oneway="1" modes="car" >
			<attributes>
				<attribute name="allowed_speed" class="java.lang.Double">13.88888888888889</attribute>
				<attribute name="origid" class="java.lang.Long">13718226</attribute>
				<attribute name="type" class="java.lang.String">secondary</attribute>
			</attributes>
		</link>
		<link id="150510520001f" from="2634195223" to="16933591" length="27.169938184150862" freespeed="12.5" capacity="1600.0" permlanes="1.0" oneway="1" modes="car" >
			<attributes>
				<attribute name="allowed_speed" class="java.lang.Double">13.88888888888889</attribute>
				<attribute name="origid" class="java.lang.Long">15051052</attribute>
				<attribute name="type" class="java.lang.String">secondary</attribute>
			</attributes>
		</link>
		<link id="150512150007f" from="148459914" to="148459925" length="69.98377266289519" freespeed="12.5" capacity="1500.0" permlanes="1.0" oneway="1" modes="car" >
			<attributes>
				<attribute name="allowed_speed" class="java.lang.Double">13.88888888888889</attribute>
				<attribute name="origid" class="java.lang.Long">15051215</attribute>
				<attribute name="type" class="java.lang.String">trunk_link</attribute>
			</attributes>
		</link>
		<link id="167716090000f" from="16933592" to="1026364449" length="29.524591108514507" freespeed="12.5" capacity="3200.0" permlanes="2.0" oneway="1" modes="car" >
			<attributes>
				<attribute name="allowed_speed" class="java.lang.Double">13.88888888888889</attribute>
				<attribute name="origid" class="java.lang.Long">16771609</attribute>
				<attribute name="type" class="java.lang.String">secondary</attribute>
			</attributes>
		</link>
		<link id="167716110002f" from="18232317" to="148459925" length="38.62816647026452" freespeed="12.5" capacity="3200.0" permlanes="2.0" oneway="1" modes="car" >
			<attributes>
				<attribute name="allowed_speed" class="java.lang.Double">13.88888888888889</attribute>
				<attribute name="origid" class="java.lang.Long">16771611</attribute>
				<attribute name="type" class="java.lang.String">secondary</attribute>
			</attributes>
		</link>
		<link id="173363420000f" from="1100580917" to="1001100037" length="24.563999878951552" freespeed="5.0" capacity="600.0" permlanes="1.0" oneway="1" modes="car" >
			<attributes>
				<attribute name="allowed_speed" class="java.lang.Double">5.555555555555555</attribute>
				<attribute name="origid" class="java.lang.Long">17336342</attribute>
				<attribute name="type" class="java.lang.String">living_street</attribute>
			</attributes>
		</link>
		<link id="173363420000r" from="1001100037" to="1100580917" length="24.563999878951552" freespeed="5.0" capacity="600.0" permlanes="1.0" oneway="1" modes="car" >
			<attributes>
				<attribute name="allowed_speed" class="java.lang.Double">5.555555555555555</attribute>
				<attribute name="origid" class="java.lang.Long">17336342</attribute>
				<attribute name="type" class="java.lang.String">living_street</attribute>
			</attributes>
		</link>
		<link id="1743384590000f" from="1125556955" to="2634195299" length="9.790851963178588" freespeed="12.5" capacity="1600.0" permlanes="1.0" oneway="1" modes="car" >
			<attributes>
				<attribute name="allowed_speed" class="java.lang.Double">13.88888888888889</attribute>
				<attribute name="origid" class="java.lang.Long">174338459</attribute>
				<attribute name="type" class="java.lang.String">secondary</attribute>
			</attributes>
		</link>
		<link id="1926590090000f" from="2032004908" to="2633771099" length="49.692137835186074" freespeed="19.444444444444443" capacity="8000.0" permlanes="2.0" oneway="1" modes="car" >
			<attributes>
				<attribute name="allowed_speed" class="java.lang.Double">19.444444444444443</attribute>
				<attribute name="origid" class="java.lang.Long">192659009</attribute>
				<attribute name="type" class="java.lang.String">trunk</attribute>
			</attributes>
		</link>
		<link id="1926590100000f" from="1026379890" to="148459356" length="173.35565003410426" freespeed="12.5" capacity="6000.0" permlanes="3.0" oneway="1" modes="car" >
			<attributes>
				<attribute name="allowed_speed" class="java.lang.Double">13.88888888888889</attribute>
				<attribute name="origid" class="java.lang.Long">192659010</attribute>
				<attribute name="type" class="java.lang.String">trunk</attribute>
			</attributes>
		</link>
		<link id="1926590110000f" from="2032004911" to="2032004908" length="12.292830763284586" freespeed="19.444444444444443" capacity="12000.0" permlanes="3.0" oneway="1" modes="car" >
			<attributes>
				<attribute name="allowed_speed" class="java.lang.Double">19.444444444444443</attribute>
				<attribute name="origid" class="java.lang.Long">192659011</attribute>
				<attribute name="type" class="java.lang.String">trunk</attribute>
			</attributes>
		</link>
		<link id="1926590220002f" from="126679456" to="126679455" length="164.39379814966847" freespeed="12.5" capacity="600.0" permlanes="1.0" oneway="1" modes="car" >
			<attributes>
				<attribute name="allowed_speed" class="java.lang.Double">13.88888888888889</attribute>
				<attribute name="origid" class="java.lang.Long">192659022</attribute>
				<attribute name="type" class="java.lang.String">unclassified</attribute>
			</attributes>
		</link>
		<link id="1926590220002r" from="126679455" to="126679456" length="164.39379814966847" freespeed="12.5" capacity="600.0" permlanes="1.0" oneway="1" modes="car" >
			<attributes>
				<attribute name="allowed_speed" class="java.lang.Double">13.88888888888889</attribute>
				<attribute name="origid" class="java.lang.Long">192659022</attribute>
				<attribute name="type" class="java.lang.String">unclassified</attribute>
			</attributes>
		</link>
		<link id="1926590230003f" from="4567021020" to="4567021024" length="17.45408738462023" freespeed="12.5" capacity="1200.0" permlanes="1.0" oneway="1" modes="car" >
			<attributes>
				<attribute name="allowed_speed" class="java.lang.Double">13.88888888888889</attribute>
				<attribute name="origid" class="java.lang.Long">192659023</attribute>
				<attribute name="type" class="java.lang.String">unclassified</attribute>
			</attributes>
		</link>
		<link id="244714990000f" from="16737648" to="6699214241" length="20.17717542390165" freespeed="7.500000000000001" capacity="600.0" permlanes="0.5" oneway="1" modes="car" >
			<attributes>
				<attribute name="allowed_speed" class="java.lang.Double">8.333333333333334</attribute>
				<attribute name="origid" class="java.lang.Long">24471499</attribute>
				<attribute name="type" class="java.lang.String">residential</attribute>
			</attributes>
		</link>
		<link id="244714990000r" from="6699214241" to="16737648" length="20.17717542390165" freespeed="7.500000000000001" capacity="600.0" permlanes="0.5" oneway="1" modes="car" >
			<attributes>
				<attribute name="allowed_speed" class="java.lang.Double">8.333333333333334</attribute>
				<attribute name="origid" class="java.lang.Long">24471499</attribute>
				<attribute name="type" class="java.lang.String">residential</attribute>
			</attributes>
		</link>
		<link id="244714990005f" from="6699214241" to="3771525357" length="28.5750649029848" freespeed="7.500000000000001" capacity="600.0" permlanes="0.5" oneway="1" modes="car" >
			<attributes>
				<attribute name="allowed_speed" class="java.lang.Double">8.333333333333334</attribute>
				<attribute name="origid" class="java.lang.Long">24471499</attribute>
				<attribute name="type" class="java.lang.String">residential</attribute>
			</attributes>
		</link>
		<link id="244714990005r" from="3771525357" to="6699214241" length="28.5750649029848" freespeed="7.500000000000001" capacity="600.0" permlanes="0.5" oneway="1" modes="car" >
			<attributes>
				<attribute name="allowed_speed" class="java.lang.Double">8.333333333333334</attribute>
				<attribute name="origid" class="java.lang.Long">24471499</attribute>
				<attribute name="type" class="java.lang.String">residential</attribute>
			</attributes>
		</link>
		<link id="244714990006f" from="3771525357" to="16737651" length="47.11770167704552" freespeed="7.500000000000001" capacity="600.0" permlanes="0.5" oneway="1" modes="car" >
			<attributes>
				<attribute name="allowed_speed" class="java.lang.Double">8.333333333333334</attribute>
				<attribute name="origid" class="java.lang.Long">24471499</attribute>
				<attribute name="type" class="java.lang.String">residential</attribute>
			</attributes>
		</link>
		<link id="244714990006r" from="16737651" to="3771525357" length="47.11770167704552" freespeed="7.500000000000001" capacity="600.0" permlanes="0.5" oneway="1" modes="car" >
			<attributes>
				<attribute name="allowed_speed" class="java.lang.Double">8.333333333333334</attribute>
				<attribute name="origid" class="java.lang.Long">24471499</attribute>
				<attribute name="type" class="java.lang.String">residential</attribute>
			</attributes>
		</link>
		<link id="2579820470000f" from="249438907" to="16933592" length="14.492845416440538" freespeed="7.500000000000001" capacity="1200.0" permlanes="1.0" oneway="1" modes="car" >
			<attributes>
				<attribute name="allowed_speed" class="java.lang.Double">8.333333333333334</attribute>
				<attribute name="origid" class="java.lang.Long">257982047</attribute>
				<attribute name="type" class="java.lang.String">residential</attribute>
			</attributes>
		</link>
		<link id="270622440010f" from="1101589549" to="16737675" length="99.38543336709635" freespeed="7.500000000000001" capacity="600.0" permlanes="1.0" oneway="1" modes="car" >
			<attributes>
				<attribute name="allowed_speed" class="java.lang.Double">8.333333333333334</attribute>
				<attribute name="origid" class="java.lang.Long">27062244</attribute>
				<attribute name="type" class="java.lang.String">residential</attribute>
			</attributes>
		</link>
		<link id="270622450018f" from="1101589549" to="296208713" length="105.66868908113376" freespeed="7.500000000000001" capacity="600.0" permlanes="1.0" oneway="1" modes="car" >
			<attributes>
				<attribute name="allowed_speed" class="java.lang.Double">8.333333333333334</attribute>
				<attribute name="origid" class="java.lang.Long">27062245</attribute>
				<attribute name="type" class="java.lang.String">residential</attribute>
			</attributes>
		</link>
		<link id="270622450018r" from="296208713" to="1101589549" length="105.66868908113376" freespeed="7.500000000000001" capacity="600.0" permlanes="1.0" oneway="1" modes="car" >
			<attributes>
				<attribute name="allowed_speed" class="java.lang.Double">8.333333333333334</attribute>
				<attribute name="origid" class="java.lang.Long">27062245</attribute>
				<attribute name="type" class="java.lang.String">residential</attribute>
			</attributes>
		</link>
		<link id="285888980004f" from="4567021001" to="18233451" length="47.52201124288419" freespeed="7.500000000000001" capacity="600.0" permlanes="0.5" oneway="1" modes="car" >
			<attributes>
				<attribute name="allowed_speed" class="java.lang.Double">8.333333333333334</attribute>
				<attribute name="origid" class="java.lang.Long">28588898</attribute>
				<attribute name="type" class="java.lang.String">residential</attribute>
			</attributes>
		</link>
		<link id="285888980004r" from="18233451" to="4567021001" length="47.52201124288419" freespeed="7.500000000000001" capacity="600.0" permlanes="0.5" oneway="1" modes="car" >
			<attributes>
				<attribute name="allowed_speed" class="java.lang.Double">8.333333333333334</attribute>
				<attribute name="origid" class="java.lang.Long">28588898</attribute>
				<attribute name="type" class="java.lang.String">residential</attribute>
			</attributes>
		</link>
		<link id="3251660380005f" from="1026364451" to="1100580863" length="73.86650989585287" freespeed="2.7777777777777777" capacity="300.0" permlanes="1.0" oneway="1" modes="car" >
			<attributes>
				<attribute name="allowed_speed" class="java.lang.Double">2.7777777777777777</attribute>
				<attribute name="origid" class="java.lang.Long">325166038</attribute>
				<attribute name="type" class="java.lang.String">living_street</attribute>
			</attributes>
		</link>
		<link id="3251660380005r" from="1100580863" to="1026364451" length="73.86650989585287" freespeed="2.7777777777777777" capacity="300.0" permlanes="1.0" oneway="1" modes="car" >
			<attributes>
				<attribute name="allowed_speed" class="java.lang.Double">2.7777777777777777</attribute>
				<attribute name="origid" class="java.lang.Long">325166038</attribute>
				<attribute name="type" class="java.lang.String">living_street</attribute>
			</attributes>
		</link>
		<link id="3251660380008f" from="1100580863" to="1100580917" length="68.09873116948637" freespeed="2.7777777777777777" capacity="300.0" permlanes="1.0" oneway="1" modes="car" >
			<attributes>
				<attribute name="allowed_speed" class="java.lang.Double">2.7777777777777777</attribute>
				<attribute name="origid" class="java.lang.Long">325166038</attribute>
				<attribute name="type" class="java.lang.String">living_street</attribute>
			</attributes>
		</link>
		<link id="3251660380008r" from="1100580917" to="1100580863" length="68.09873116948637" freespeed="2.7777777777777777" capacity="300.0" permlanes="1.0" oneway="1" modes="car" >
			<attributes>
				<attribute name="allowed_speed" class="java.lang.Double">2.7777777777777777</attribute>
				<attribute name="origid" class="java.lang.Long">325166038</attribute>
				<attribute name="type" class="java.lang.String">living_street</attribute>
			</attributes>
		</link>
		<link id="3251660380009f" from="1100580917" to="4567021041" length="36.8802163993909" freespeed="2.7777777777777777" capacity="600.0" permlanes="1.0" oneway="1" modes="car" >
			<attributes>
				<attribute name="allowed_speed" class="java.lang.Double">2.7777777777777777</attribute>
				<attribute name="origid" class="java.lang.Long">325166038</attribute>
				<attribute name="type" class="java.lang.String">living_street</attribute>
			</attributes>
		</link>
		<link id="3251660380009r" from="4567021041" to="1100580917" length="36.8802163993909" freespeed="2.7777777777777777" capacity="600.0" permlanes="1.0" oneway="1" modes="car" >
			<attributes>
				<attribute name="allowed_speed" class="java.lang.Double">2.7777777777777777</attribute>
				<attribute name="origid" class="java.lang.Long">325166038</attribute>
				<attribute name="type" class="java.lang.String">living_street</attribute>
			</attributes>
		</link>
		<link id="3251660390001f" from="3703160522" to="18233453" length="6.267800069132081" freespeed="7.500000000000001" capacity="1200.0" permlanes="1.0" oneway="1" modes="car" >
			<attributes>
				<attribute name="allowed_speed" class="java.lang.Double">8.333333333333334</attribute>
				<attribute name="origid" class="java.lang.Long">325166039</attribute>
				<attribute name="type" class="java.lang.String">tertiary</attribute>
			</attributes>
		</link>
		<link id="3251660390004f" from="18233453" to="3318306314" length="23.106960032502194" freespeed="7.500000000000001" capacity="1200.0" permlanes="1.0" oneway="1" modes="car" >
			<attributes>
				<attribute name="allowed_speed" class="java.lang.Double">8.333333333333334</attribute>
				<attribute name="origid" class="java.lang.Long">325166039</attribute>
				<attribute name="type" class="java.lang.String">tertiary</attribute>
			</attributes>
		</link>
		<link id="33901920000f" from="18232317" to="126673884" length="53.721278853089295" freespeed="12.5" capacity="2400.0" permlanes="3.0" oneway="1" modes="car" >
			<attributes>
				<attribute name="allowed_speed" class="java.lang.Double">13.88888888888889</attribute>
				<attribute name="origid" class="java.lang.Long">3390192</attribute>
				<attribute name="type" class="java.lang.String">secondary</attribute>
			</attributes>
		</link>
		<link id="33901950000f" from="16737681" to="1472593966" length="100.98646740514036" freespeed="5.0" capacity="150.0" permlanes="0.5" oneway="1" modes="car" >
			<attributes>
				<attribute name="allowed_speed" class="java.lang.Double">5.555555555555555</attribute>
				<attribute name="origid" class="java.lang.Long">3390195</attribute>
				<attribute name="type" class="java.lang.String">living_street</attribute>
			</attributes>
		</link>
		<link id="33901950000r" from="1472593966" to="16737681" length="100.98646740514036" freespeed="5.0" capacity="150.0" permlanes="0.5" oneway="1" modes="car" >
			<attributes>
				<attribute name="allowed_speed" class="java.lang.Double">5.555555555555555</attribute>
				<attribute name="origid" class="java.lang.Long">3390195</attribute>
				<attribute name="type" class="java.lang.String">living_street</attribute>
			</attributes>
		</link>
		<link id="33901970007f" from="1100580844" to="2639836073" length="111.77528035840879" freespeed="7.500000000000001" capacity="300.0" permlanes="0.5" oneway="1" modes="car" >
			<attributes>
				<attribute name="allowed_speed" class="java.lang.Double">8.333333333333334</attribute>
				<attribute name="origid" class="java.lang.Long">3390197</attribute>
				<attribute name="type" class="java.lang.String">residential</attribute>
			</attributes>
		</link>
		<link id="33901970007r" from="2639836073" to="1100580844" length="111.77528035840879" freespeed="7.500000000000001" capacity="300.0" permlanes="0.5" oneway="1" modes="car" >
			<attributes>
				<attribute name="allowed_speed" class="java.lang.Double">8.333333333333334</attribute>
				<attribute name="origid" class="java.lang.Long">3390197</attribute>
				<attribute name="type" class="java.lang.String">residential</attribute>
			</attributes>
		</link>
		<link id="33901990007f" from="1101589549" to="2639836073" length="110.91535828100047" freespeed="7.500000000000001" capacity="300.0" permlanes="0.5" oneway="1" modes="car" >
			<attributes>
				<attribute name="allowed_speed" class="java.lang.Double">8.333333333333334</attribute>
				<attribute name="origid" class="java.lang.Long">3390199</attribute>
				<attribute name="type" class="java.lang.String">residential</attribute>
			</attributes>
		</link>
		<link id="33901990007r" from="2639836073" to="1101589549" length="110.91535828100047" freespeed="7.500000000000001" capacity="300.0" permlanes="0.5" oneway="1" modes="car" >
			<attributes>
				<attribute name="allowed_speed" class="java.lang.Double">8.333333333333334</attribute>
				<attribute name="origid" class="java.lang.Long">3390199</attribute>
				<attribute name="type" class="java.lang.String">residential</attribute>
			</attributes>
		</link>
		<link id="33901990012f" from="2639836073" to="1101589622" length="68.67368389483222" freespeed="7.500000000000001" capacity="300.0" permlanes="0.5" oneway="1" modes="car" >
			<attributes>
				<attribute name="allowed_speed" class="java.lang.Double">8.333333333333334</attribute>
				<attribute name="origid" class="java.lang.Long">3390199</attribute>
				<attribute name="type" class="java.lang.String">residential</attribute>
			</attributes>
		</link>